tests/fuzzer/corpus_json/24_columnar_21_random_023.json
{
  "version": "1.0",
  "type": "input",
  "is_batch": false,
  "attributes": {
    "node": [
      "id",
      "u_rated"
    ],
    "source": [
      "id",
      "node",
      "status",
      "u_ref",
      "u_ref_angle",
      "sk",
      "rx_ratio",
      "z01_ratio"
    ],
    "line": [
      "id",
      "from_node",
      "to_node",
      "from_status",
      "to_status",
      "r1",
      "x1",
      "c1",
      "tan1",
      "r0",
      "x0",
      "c0",
      "tan0",
      "i_n"
    ],
    "sym_load": [
      "id",
      "node",
      "status",
      "type",
      "p_specified",
      "q_specified"
    ]
  },
  "data": {
    "node": [
      [
        0,
        10000.0
      ],
      [
        1,
        10000.0
      ],
      [
        2,
        10000.0
      ],
      [
        3,
        10000.0
      ],
      [
        4,
        10000.0
      ],
      [
        5,
        10000.0
      ],
      [
        6,
        10000.0
      ],
      [
        7,
        10000.0
      ],
      [
        8,
        10000.0
      ],
      [
        9,
        10000.0
      ],
      [
        10,
        10000.0
      ],
      [
        11,
        10000.0
      ],
      [
        12,
        10000.0
      ],
      [
        13,
        10000.0
      ]
    ],
    "source": [
      [
        14,
        0,
        1,
        0.9167101353661368,
        0.0,
        892444100.7141745,
        0.29601361344286764,
        1.0
      ]
    ],
    "line": [
      [
        15,
        0,
        1,
        1,
        1,
        2.6504400505900323,
        0.6515147062374027,
        1.9199715753929268e-07,
        0.0,
        0.3,
        0.3,
        1e-09,
        0.0,
        450.12783813428285
      ],
      [
        16,
        1,
        2,
        1,
        1,
        1.1051958657860954,
        2.275164794238582,
        2.4766967489568525e-08,
        0.0,
        0.3,
        0.3,
        1e-09,
        0.0,
        94.91634541348864
      ],
      [
        17,
        2,
        3,
        1,
        1,
        3.5500410012245505,
        2.1062418080709704,
        5.126339243923559e-07,
        0.0,
        0.3,
        0.3,
        1e-09,
        0.0,
        736.8669879956606
      ],
      [
        18,
        3,
        4,
        1,
        1,
        1.7949817989309986,
        0.2877726482460924,
        7.831023561605041e-07,
        0.0,
        0.3,
        0.3,
        1e-09,
        0.0,
        593.2322479442848
      ],
      [
        19,
        4,
        5,
        1,
        1,
        3.289563550499477,
        3.1049572756903348,
        9.70735227578957e-07,
        0.0,
        0.3,
        0.3,
        1e-09,
        0.0,
        369.16459329332736
      ],
      [
        20,
        5,
        6,
        1,
        1,
        3.798933061217655,
        1.8434190738410339,
        5.720467811917808e-07,
        0.0,
        0.3,
        0.3,
        1e-09,
        0.0,
        663.9267881578148
      ],
      [
        21,
        6,
        7,
        1,
        1,
        1.5719555531809326,
        0.4286806216193567,
        4.740664227130393e-07,
        0.0,
        0.3,
        0.3,
        1e-09,
        0.0,
        720.7348637152711
      ],
      [
        22,
        7,
        8,
        1,
        1,
        2.953048489670851,
        2.2372577963666718,
        6.423784655599654e-07,
        0.0,
        0.3,
        0.3,
        1e-09,
        0.0,
        190.20892382424827
      ],
      [
        23,
        8,
        9,
        1,
        1,
        0.8926997532541558,
        1.6170617443833002,
        8.158734926586414e-07,
        0.0,
        0.3,
        0.3,
        1e-09,
        0.0,
        203.65177427586102
      ],
      [
        24,
        9,
        10,
        1,
        1,
        0.5715060264739069,
        0.493020989974679,
        3.8933169603423075e-08,
        0.0,
        0.3,
        0.3,
        1e-09,
        0.0,
        282.8088168851508
      ],
      [
        25,
        10,
        11,
        1,
        1,
        2.864109474442189,
        4.103315904362622,
        3.308048479932988e-07,
        0.0,
        0.3,
        0.3,
        1e-09,
        0.0,
        375.9573926860382
      ],
      [
        26,
        11,
        12,
        1,
        1,
        1.4424216204194806,
        1.523937169259015,
        7.775824997926371e-07,
        0.0,
        0.3,
        0.3,
        1e-09,
        0.0,
        553.5035352119228
      ],
      [
        27,
        12,
        13,
        1,
        1,
        1.292092619446414,
        0.5356361575295127,
        7.838090667083399e-07,
        0.0,
        0.3,
        0.3,
        1e-09,
        0.0,
        710.072019674854
      ]
    ],
    "sym_load": [
      [
        28,
        2,
        1,
        2,
        -71509.98276659375,
        4906.280427082736
      ],
      [
        29,
        3,
        1,
        1,
        -66548.04878039153,
        9500.129376914974
      ],
      [
        30,
        4,
        1,
        1,
        -21323.62570857584,
        -6748.606590991726
      ],
      [
        31,
        5,
        1,
        0,
        94747.12941378701,
        6099.274715862564
      ],
      [
        32,
        7,
        1,
        1,
        49802.87267687119,
        -3077.148941760006
      ],
      [
        33,
        9,
        1,
        0,
        -92601.3125838681,
        -4713.663389391037
      ],
      [
        34,
        10,
        1,
        1,
        90090.7371873316,
        -5680.977837494914
      ],
      [
        35,
        11,
        1,
        2,
        29900.62858116618,
        3812.1905242872726
      ],
      [
        36,
        12,
        1,
        0,
        -49387.52934335007,
        -1564.9679057403391
      ]
    ]
  }
}
